  Version,9.3;

  Timestep,1;

  LifeCycleCost:Parameters,
    Life Cycle Cost Parameters,  !- Name
    EndOfYear,               !- Discounting Convention
    ConstantDollar,          !- Inflation Approach
    0.03,                    !- Real Discount Rate
    ,                        !- Nominal Discount Rate
    ,                        !- Inflation
    ,                        !- Base Date Month
    2011,                    !- Base Date Year
    ,                        !- Service Date Month
    2011,                    !- Service Date Year
    25,                      !- Length of Study Period in Years
    ,                        !- Tax rate
    None;                    !- Depreciation Method

  LifeCycleCost:UsePriceEscalation,
    U.S. Avg  Commercial-Electricity,  !- LCC Price Escalation Name
    Electricity,             !- Resource
    2011,                    !- Escalation Start Year
    January,                 !- Escalation Start Month
    0.9838,                  !- Year 1 Escalation
    0.9730,                  !- Year 2 Escalation
    0.9632,                  !- Year 3 Escalation
    0.9611,                  !- Year 4 Escalation
    0.9571,                  !- Year 5 Escalation
    0.9553,                  !- Year 6 Escalation
    0.9539,                  !- Year 7 Escalation
    0.9521,                  !- Year 8 Escalation
    0.9546,                  !- Year 9 Escalation
    0.9550,                  !- <none>
    0.9553,                  !- <none>
    0.9564,                  !- <none>
    0.9575,                  !- <none>
    0.9596,                  !- <none>
    0.9618,                  !- <none>
    0.9614,                  !- <none>
    0.9618,                  !- <none>
    0.9618,                  !- <none>
    0.9593,                  !- <none>
    0.9589,                  !- <none>
    0.9607,                  !- <none>
    0.9625,                  !- <none>
    0.9650,                  !- <none>
    0.9708,                  !- <none>
    0.9751,                  !- <none>
    0.9762,                  !- <none>
    0.9766,                  !- <none>
    0.9766,                  !- <none>
    0.9769,                  !- <none>
    0.9773;                  !- <none>

  LifeCycleCost:UsePriceEscalation,
    U.S. Avg  Commercial-Distillate Oil,  !- LCC Price Escalation Name
    FuelOilNo1,              !- Resource
    2011,                    !- Escalation Start Year
    January,                 !- Escalation Start Month
    0.9714,                  !- Year 1 Escalation
    0.9730,                  !- Year 2 Escalation
    0.9942,                  !- Year 3 Escalation
    1.0164,                  !- Year 4 Escalation
    1.0541,                  !- Year 5 Escalation
    1.0928,                  !- Year 6 Escalation
    1.1267,                  !- Year 7 Escalation
    1.1580,                  !- Year 8 Escalation
    1.1792,                  !- Year 9 Escalation
    1.1967,                  !- <none>
    1.2200,                  !- <none>
    1.2333,                  !- <none>
    1.2566,                  !- <none>
    1.2709,                  !- <none>
    1.2826,                  !- <none>
    1.2985,                  !- <none>
    1.3102,                  !- <none>
    1.3250,                  !- <none>
    1.3261,                  !- <none>
    1.3282,                  !- <none>
    1.3324,                  !- <none>
    1.3356,                  !- <none>
    1.3431,                  !- <none>
    1.3510,                  !- <none>
    1.3568,                  !- <none>
    1.3606,                  !- <none>
    1.3637,                  !- <none>
    1.3674,                  !- <none>
    1.3706,                  !- <none>
    1.3743;                  !- <none>

  LifeCycleCost:UsePriceEscalation,
    U.S. Avg  Commercial-Residual Oil,  !- LCC Price Escalation Name
    FuelOilNo2,              !- Resource
    2011,                    !- Escalation Start Year
    January,                 !- Escalation Start Month
    0.8469,                  !- Year 1 Escalation
    0.8257,                  !- Year 2 Escalation
    0.8681,                  !- Year 3 Escalation
    0.8988,                  !- Year 4 Escalation
    0.9289,                  !- Year 5 Escalation
    0.9604,                  !- Year 6 Escalation
    0.9897,                  !- Year 7 Escalation
    1.0075,                  !- Year 8 Escalation
    1.0314,                  !- Year 9 Escalation
    1.0554,                  !- <none>
    1.0861,                  !- <none>
    1.1278,                  !- <none>
    1.1497,                  !- <none>
    1.1620,                  !- <none>
    1.1743,                  !- <none>
    1.1852,                  !- <none>
    1.1948,                  !- <none>
    1.2037,                  !- <none>
    1.2071,                  !- <none>
    1.2119,                  !- <none>
    1.2139,                  !- <none>
    1.2194,                  !- <none>
    1.2276,                  !- <none>
    1.2365,                  !- <none>
    1.2420,                  !- <none>
    1.2461,                  !- <none>
    1.2509,                  !- <none>
    1.2550,                  !- <none>
    1.2591,                  !- <none>
    1.2638;                  !- <none>

  LifeCycleCost:UsePriceEscalation,
    U.S. Avg  Commercial-Natural gas,  !- LCC Price Escalation Name
    NaturalGas,              !- Resource
    2011,                    !- Escalation Start Year
    January,                 !- Escalation Start Month
    0.9823,                  !- Year 1 Escalation
    0.9557,                  !- Year 2 Escalation
    0.9279,                  !- Year 3 Escalation
    0.9257,                  !- Year 4 Escalation
    0.9346,                  !- Year 5 Escalation
    0.9412,                  !- Year 6 Escalation
    0.9512,                  !- Year 7 Escalation
    0.9645,                  !- Year 8 Escalation
    0.9856,                  !- Year 9 Escalation
    1.0067,                  !- <none>
    1.0222,                  !- <none>
    1.0410,                  !- <none>
    1.0610,                  !- <none>
    1.0787,                  !- <none>
    1.0942,                  !- <none>
    1.1098,                  !- <none>
    1.1220,                  !- <none>
    1.1308,                  !- <none>
    1.1386,                  !- <none>
    1.1486,                  !- <none>
    1.1619,                  !- <none>
    1.1763,                  !- <none>
    1.1918,                  !- <none>
    1.2118,                  !- <none>
    1.2284,                  !- <none>
    1.2439,                  !- <none>
    1.2605,                  !- <none>
    1.2772,                  !- <none>
    1.2938,                  !- <none>
    1.3115;                  !- <none>

  LifeCycleCost:UsePriceEscalation,
    U.S. Avg  Commercial-Coal,  !- LCC Price Escalation Name
    Coal,                    !- Resource
    2011,                    !- Escalation Start Year
    January,                 !- Escalation Start Month
    0.9970,                  !- Year 1 Escalation
    1.0089,                  !- Year 2 Escalation
    1.0089,                  !- Year 3 Escalation
    0.9941,                  !- Year 4 Escalation
    0.9941,                  !- Year 5 Escalation
    1.0000,                  !- Year 6 Escalation
    1.0030,                  !- Year 7 Escalation
    1.0059,                  !- Year 8 Escalation
    1.0089,                  !- Year 9 Escalation
    1.0119,                  !- <none>
    1.0148,                  !- <none>
    1.0178,                  !- <none>
    1.0208,                  !- <none>
    1.0267,                  !- <none>
    1.0297,                  !- <none>
    1.0356,                  !- <none>
    1.0415,                  !- <none>
    1.0534,                  !- <none>
    1.0564,                  !- <none>
    1.0593,                  !- <none>
    1.0653,                  !- <none>
    1.0712,                  !- <none>
    1.0742,                  !- <none>
    1.0801,                  !- <none>
    1.0831,                  !- <none>
    1.0831,                  !- <none>
    1.0861,                  !- <none>
    1.0890,                  !- <none>
    1.0920,                  !- <none>
    1.0950;                  !- <none>

  Building,
    Building 1,              !- Name
    ,                        !- North Axis {deg}
    Suburbs,                 !- Terrain
    ,                        !- Loads Convergence Tolerance Value {W}
    ,                        !- Temperature Convergence Tolerance Value {deltaC}
    ,                        !- Solar Distribution
    ,                        !- Maximum Number of Warmup Days
    ;                        !- Minimum Number of Warmup Days

  Zone,
    ashp airloop ret air zone,  !- Name
    ,                        !- Direction of Relative North {deg}
    ,                        !- X Origin {m}
    ,                        !- Y Origin {m}
    ,                        !- Z Origin {m}
    ,                        !- Type
    ,                        !- Multiplier
    ,                        !- Ceiling Height {m}
    1,                       !- Volume {m3}
    ,                        !- Floor Area {m2}
    ,                        !- Zone Inside Convection Algorithm
    ;                        !- Zone Outside Convection Algorithm

  BuildingSurface:Detailed,
    Surface 1,               !- Name
    Floor,                   !- Surface Type
    AdiabaticConst,          !- Construction Name
    ashp airloop ret air zone,  !- Zone Name
    Adiabatic,               !- Outside Boundary Condition
    ,                        !- Outside Boundary Condition Object
    NoSun,                   !- Sun Exposure
    NoWind,                  !- Wind Exposure
    ,                        !- View Factor to Ground
    ,                        !- Number of Vertices
    0,0,0,  !- X,Y,Z ==> Vertex 1 {m}
    0,1,0,  !- X,Y,Z ==> Vertex 2 {m}
    1,1,0,  !- X,Y,Z ==> Vertex 3 {m}
    1,0,0;  !- X,Y,Z ==> Vertex 4 {m}

  BuildingSurface:Detailed,
    Surface 2,               !- Name
    Wall,                    !- Surface Type
    AdiabaticConst,          !- Construction Name
    ashp airloop ret air zone,  !- Zone Name
    Adiabatic,               !- Outside Boundary Condition
    ,                        !- Outside Boundary Condition Object
    NoSun,                   !- Sun Exposure
    NoWind,                  !- Wind Exposure
    ,                        !- View Factor to Ground
    ,                        !- Number of Vertices
    0,1,1,  !- X,Y,Z ==> Vertex 1 {m}
    0,1,0,  !- X,Y,Z ==> Vertex 2 {m}
    0,0,0,  !- X,Y,Z ==> Vertex 3 {m}
    0,0,1;  !- X,Y,Z ==> Vertex 4 {m}

  BuildingSurface:Detailed,
    Surface 3,               !- Name
    Wall,                    !- Surface Type
    AdiabaticConst,          !- Construction Name
    ashp airloop ret air zone,  !- Zone Name
    Adiabatic,               !- Outside Boundary Condition
    ,                        !- Outside Boundary Condition Object
    NoSun,                   !- Sun Exposure
    NoWind,                  !- Wind Exposure
    ,                        !- View Factor to Ground
    ,                        !- Number of Vertices
    1,1,1,  !- X,Y,Z ==> Vertex 1 {m}
    1,1,0,  !- X,Y,Z ==> Vertex 2 {m}
    0,1,0,  !- X,Y,Z ==> Vertex 3 {m}
    0,1,1;  !- X,Y,Z ==> Vertex 4 {m}

  BuildingSurface:Detailed,
    Surface 4,               !- Name
    Wall,                    !- Surface Type
    AdiabaticConst,          !- Construction Name
    ashp airloop ret air zone,  !- Zone Name
    Adiabatic,               !- Outside Boundary Condition
    ,                        !- Outside Boundary Condition Object
    NoSun,                   !- Sun Exposure
    NoWind,                  !- Wind Exposure
    ,                        !- View Factor to Ground
    ,                        !- Number of Vertices
    1,0,1,  !- X,Y,Z ==> Vertex 1 {m}
    1,0,0,  !- X,Y,Z ==> Vertex 2 {m}
    1,1,0,  !- X,Y,Z ==> Vertex 3 {m}
    1,1,1;  !- X,Y,Z ==> Vertex 4 {m}

  BuildingSurface:Detailed,
    Surface 5,               !- Name
    Wall,                    !- Surface Type
    AdiabaticConst,          !- Construction Name
    ashp airloop ret air zone,  !- Zone Name
    Adiabatic,               !- Outside Boundary Condition
    ,                        !- Outside Boundary Condition Object
    NoSun,                   !- Sun Exposure
    NoWind,                  !- Wind Exposure
    ,                        !- View Factor to Ground
    ,                        !- Number of Vertices
    0,0,1,  !- X,Y,Z ==> Vertex 1 {m}
    0,0,0,  !- X,Y,Z ==> Vertex 2 {m}
    1,0,0,  !- X,Y,Z ==> Vertex 3 {m}
    1,0,1;  !- X,Y,Z ==> Vertex 4 {m}

  BuildingSurface:Detailed,
    Surface 6,               !- Name
    Ceiling,                 !- Surface Type
    AdiabaticConst,          !- Construction Name
    ashp airloop ret air zone,  !- Zone Name
    Adiabatic,               !- Outside Boundary Condition
    ,                        !- Outside Boundary Condition Object
    NoSun,                   !- Sun Exposure
    NoWind,                  !- Wind Exposure
    ,                        !- View Factor to Ground
    ,                        !- Number of Vertices
    1,0,1,  !- X,Y,Z ==> Vertex 1 {m}
    1,1,1,  !- X,Y,Z ==> Vertex 2 {m}
    0,1,1,  !- X,Y,Z ==> Vertex 3 {m}
    0,0,1;  !- X,Y,Z ==> Vertex 4 {m}

  OtherEquipment,
    ashp_airloop_RetCondToRP equip,  !- Name
    None,                    !- Fuel Type
    ashp airloop ret air zone,  !- Zone or ZoneList Name
    Always On Discrete,      !- Schedule Name
    EquipmentLevel,          !- Design Level Calculation Method
    0,                       !- Design Level {W}
    ,                        !- Power per Zone Floor Area {W/m2}
    ,                        !- Power per Person {W/person}
    ,                        !- Fraction Latent
    ,                        !- Fraction Radiant
    ,                        !- Fraction Lost
    ,                        !- Carbon Dioxide Generation Rate {m3/s-W}
    General;                 !- End-Use Subcategory

  OtherEquipment,
    ashp_airloop_RetLatLkToRP equip,  !- Name
    None,                    !- Fuel Type
    ashp airloop ret air zone,  !- Zone or ZoneList Name
    Always On Discrete,      !- Schedule Name
    EquipmentLevel,          !- Design Level Calculation Method
    0,                       !- Design Level {W}
    ,                        !- Power per Zone Floor Area {W/m2}
    ,                        !- Power per Person {W/person}
    ,                        !- Fraction Latent
    ,                        !- Fraction Radiant
    ,                        !- Fraction Lost
    ,                        !- Carbon Dioxide Generation Rate {m3/s-W}
    General;                 !- End-Use Subcategory

  OtherEquipment,
    ashp_airloop_RetSensLkToRP equip,  !- Name
    None,                    !- Fuel Type
    ashp airloop ret air zone,  !- Zone or ZoneList Name
    Always On Discrete,      !- Schedule Name
    EquipmentLevel,          !- Design Level Calculation Method
    0,                       !- Design Level {W}
    ,                        !- Power per Zone Floor Area {W/m2}
    ,                        !- Power per Person {W/person}
    ,                        !- Fraction Latent
    ,                        !- Fraction Radiant
    ,                        !- Fraction Lost
    ,                        !- Carbon Dioxide Generation Rate {m3/s-W}
    General;                 !- End-Use Subcategory

  Zone,
    conditioned basement,    !- Name
    ,                        !- Direction of Relative North {deg}
    ,                        !- X Origin {m}
    ,                        !- Y Origin {m}
    ,                        !- Z Origin {m}
    ,                        !- Type
    ,                        !- Multiplier
    ,                        !- Ceiling Height {m}
    344.0496860928,          !- Volume {m3}
    ,                        !- Floor Area {m2}
    ,                        !- Zone Inside Convection Algorithm
    ;                        !- Zone Outside Convection Algorithm

  BuildingSurface:Detailed,
    FoundationWall,          !- Name
    Wall,                    !- Surface Type
    FoundationWall construction,  !- Construction Name
    conditioned basement,    !- Zone Name
    Foundation,              !- Outside Boundary Condition
    Foundation Kiva 1,       !- Outside Boundary Condition Object
    NoSun,                   !- Sun Exposure
    NoWind,                  !- Wind Exposure
    ,                        !- View Factor to Ground
    ,                        !- Number of Vertices
    30.3949181210965,76.1149198480705,-2.1336,  !- X,Y,Z ==> Vertex 1 {m}
    30.3949181210965,76.1149198480705,0.3048,  !- X,Y,Z ==> Vertex 2 {m}
    76.1149181210965,76.1149198480705,0.3048,  !- X,Y,Z ==> Vertex 3 {m}
    76.1149181210965,76.1149198480705,-2.1336;  !- X,Y,Z ==> Vertex 4 {m}

  BuildingSurface:Detailed,
    inferred conditioned basement ceiling,  !- Name
    Ceiling,                 !- Surface Type
    AdiabaticFloorConstruction,  !- Construction Name
    conditioned basement,    !- Zone Name
    Adiabatic,               !- Outside Boundary Condition
    ,                        !- Outside Boundary Condition Object
    NoSun,                   !- Sun Exposure
    NoWind,                  !- Wind Exposure
    ,                        !- View Factor to Ground
    ,                        !- Number of Vertices
    -5.59953355200235,5.59953355200234,0.3048,  !- X,Y,Z ==> Vertex 1 {m}
    -5.59953355200235,-5.59953355200234,0.3048,  !- X,Y,Z ==> Vertex 2 {m}
    5.59953355200235,-5.59953355200234,0.3048,  !- X,Y,Z ==> Vertex 3 {m}
    5.59953355200235,5.59953355200234,0.3048;  !- X,Y,Z ==> Vertex 4 {m}

  BuildingSurface:Detailed,
    RimJoistFoundation,      !- Name
    Wall,                    !- Surface Type
    RimJoistFoundation construction,  !- Construction Name
    conditioned basement,    !- Zone Name
    Outdoors,                !- Outside Boundary Condition
    ,                        !- Outside Boundary Condition Object
    SunExposed,              !- Sun Exposure
    WindExposed,             !- Wind Exposure
    ,                        !- View Factor to Ground
    ,                        !- Number of Vertices
    -5.89091227890353,76.1149192945166,0.3048,  !- X,Y,Z ==> Vertex 1 {m}
    -5.89091227890353,76.1149192945166,0.6096,  !- X,Y,Z ==> Vertex 2 {m}
    29.4658877210965,76.1149192945166,0.6096,  !- X,Y,Z ==> Vertex 3 {m}
    29.4658877210965,76.1149192945166,0.3048;  !- X,Y,Z ==> Vertex 4 {m}

  BuildingSurface:Detailed,
    Slab,                    !- Name
    Floor,                   !- Surface Type
    Slab construction,       !- Construction Name
    conditioned basement,    !- Zone Name
    Foundation,              !- Outside Boundary Condition
    Foundation Kiva 1,       !- Outside Boundary Condition Object
    NoSun,                   !- Sun Exposure
    NoWind,                  !- Wind Exposure
    ,                        !- View Factor to Ground
    ,                        !- Number of Vertices
    -6.858,-4.572,-2.1336,  !- X,Y,Z ==> Vertex 1 {m}
    -6.858,4.572,-2.1336,  !- X,Y,Z ==> Vertex 2 {m}
    6.858,4.572,-2.1336,  !- X,Y,Z ==> Vertex 3 {m}
    6.858,-4.572,-2.1336;  !- X,Y,Z ==> Vertex 4 {m}

  InternalMass,
    conditioned basement Partition,  !- Name
    PartitionWallConstruction,  !- Construction Name
    conditioned basement,    !- Zone or ZoneList Name
    125.419104;              !- Surface Area {m2}

  InternalMass,
    furniture mass conditioned basement,  !- Name
    furniture construction conditioned basement,  !- Construction Name
    conditioned basement,    !- Zone or ZoneList Name
    125.419104;              !- Surface Area {m2}

  People,
    occupants|conditioned basement,  !- Name
    conditioned basement,    !- Zone or ZoneList Name
    occupants schedule,      !- Number of People Schedule Name
    People,                  !- Number of People Calculation Method
    1.5,                     !- Number of People
    ,                        !- People per Zone Floor Area {person/m2}
    ,                        !- Zone Floor Area per Person {m2/person}
    0.314170909090909,       !- Fraction Radiant
    0.563030303030303,       !- Sensible Heat Fraction
    Schedule Ruleset 1,      !- Activity Level Schedule Name
    0,                       !- Carbon Dioxide Generation Rate {m3/s-W}
    No,                      !- Enable ASHRAE 55 Comfort Warnings
    ZoneAveraged;            !- Mean Radiant Temperature Calculation Type

  Lights,
    lighting conditioned basement,  !- Name
    conditioned basement,    !- Zone or ZoneList Name
    lighting schedule,       !- Schedule Name
    LightingLevel,           !- Design Level Calculation Method
    198.956622009161,        !- Lighting Level {W}
    ,                        !- Watts per Zone Floor Area {W/m2}
    ,                        !- Watts per Person {W/person}
    0,                       !- Return Air Fraction
    0.6,                     !- Fraction Radiant
    0.2,                     !- Fraction Visible
    1,                       !- Fraction Replaceable
    General;                 !- End-Use Subcategory

  ScheduleTypeLimits,
    Fractional,              !- Name
    0,                       !- Lower Limit Value
    1,                       !- Upper Limit Value
    Continuous;              !- Numeric Type

  Schedule:Day:Interval,
    lighting schedule allday1,  !- Name
    Fractional,              !- Schedule Type Limits Name
    No,                      !- Interpolate to Timestep
    01:00,                   !- Time 1
    0.123751072162069,       !- Value Until Time 1
    02:00,                   !- Time 2
    0.0742506432972411,      !- Value Until Time 2
    04:00,                   !- Time 3
    0.0495004288648274,      !- Value Until Time 3
    05:00,                   !- Time 4
    0.0550333376161933,      !- Value Until Time 4
    06:00,                   !- Time 5
    0.151005022179023,       !- Value Until Time 5
    07:00,                   !- Time 6
    0.354518107603027,       !- Value Until Time 6
    08:00,                   !- Time 7
    0.448633526083425,       !- Value Until Time 7
    09:00,                   !- Time 8
    0.476771434799925,       !- Value Until Time 8
    10:00,                   !- Time 9
    0.490087694413797,       !- Value Until Time 9
    11:00,                   !- Time 10
    0.47676254750322,        !- Value Until Time 10
    12:00,                   !- Time 11
    0.458300917761086,       !- Value Until Time 11
    13:00,                   !- Time 12
    0.444975770850508,       !- Value Until Time 12
    14:00,                   !- Time 13
    0.441054650935996,       !- Value Until Time 13
    15:00,                   !- Time 14
    0.447927143848223,       !- Value Until Time 14
    16:00,                   !- Time 15
    0.489859618497789,       !- Value Until Time 15
    17:00,                   !- Time 16
    0.60158531869683,        !- Value Until Time 16
    18:00,                   !- Time 17
    0.797807347679347,       !- Value Until Time 17
    19:00,                   !- Time 18
    0.978645640193189,       !- Value Until Time 18
    20:00,                   !- Time 19
    0.990804617727098,       !- Value Until Time 19
    21:00,                   !- Time 20
    0.82257845347793,        !- Value Until Time 20
    22:00,                   !- Time 21
    0.620620743953026,       !- Value Until Time 21
    23:00,                   !- Time 22
    0.536431278270202,       !- Value Until Time 22
    24:00,                   !- Time 23
    0.249225449441605;       !- Value Until Time 23

  Schedule:Week:Daily,
    lighting schedule Week Rule - Jan1-Jan6,  !- Name
    Schedule Day 17,         !- Sunday Schedule:Day Name
    lighting schedule allday1,  !- Monday Schedule:Day Name
    lighting schedule allday1,  !- Tuesday Schedule:Day Name
    lighting schedule allday1,  !- Wednesday Schedule:Day Name
    lighting schedule allday1,  !- Thursday Schedule:Day Name
    lighting schedule allday1,  !- Friday Schedule:Day Name
    lighting schedule allday1,  !- Saturday Schedule:Day Name
    Schedule Day 17,         !- Holiday Schedule:Day Name
    Schedule Day 17,         !- SummerDesignDay Schedule:Day Name
    Schedule Day 17,         !- WinterDesignDay Schedule:Day Name
    Schedule Day 17,         !- CustomDay1 Schedule:Day Name
    Schedule Day 17;         !- CustomDay2 Schedule:Day Name

  Schedule:Day:Interval,
    lighting schedule allday2,  !- Name
    Fractional,              !- Schedule Type Limits Name
    No,                      !- Interpolate to Timestep
    01:00,                   !- Time 1
    0.123751072162069,       !- Value Until Time 1
    02:00,                   !- Time 2
    0.0742506432972411,      !- Value Until Time 2
    04:00,                   !- Time 3
    0.0495004288648274,      !- Value Until Time 3
    05:00,                   !- Time 4
    0.0547502792918702,      !- Value Until Time 4
    06:00,                   !- Time 5
    0.14959356840383,        !- Value Until Time 5
    07:00,                   !- Time 6
    0.351204403766361,       !- Value Until Time 6
    08:00,                   !- Time 7
    0.444440119301778,       !- Value Until Time 7
    09:00,                   !- Time 8
    0.470027235967276,       !- Value Until Time 8
    10:00,                   !- Time 9
    0.480931242449438,       !- Value Until Time 9
    11:00,                   !- Time 10
    0.467730646554718,       !- Value Until Time 10
    12:00,                   !- Time 11
    0.449441578867937,       !- Value Until Time 11
    13:00,                   !- Time 12
    0.436240982973216,       !- Value Until Time 12
    14:00,                   !- Time 13
    0.432356514021874,       !- Value Until Time 13
    15:00,                   !- Time 14
    0.435457808080091,       !- Value Until Time 14
    16:00,                   !- Time 15
    0.457540823996247,       !- Value Until Time 15
    17:00,                   !- Time 16
    0.526174177455289,       !- Value Until Time 16
    18:00,                   !- Time 17
    0.674382394551488,       !- Value Until Time 17
    19:00,                   !- Time 18
    0.867815494038475,       !- Value Until Time 18
    20:00,                   !- Time 19
    0.979612583585372,       !- Value Until Time 19
    21:00,                   !- Time 20
    0.912905459533178,       !- Value Until Time 20
    22:00,                   !- Time 21
    0.727145019170589,       !- Value Until Time 21
    23:00,                   !- Time 22
    0.638087965962348,       !- Value Until Time 22
    24:00,                   !- Time 23
    0.249225449441605;       !- Value Until Time 23

  Schedule:Week:Daily,
    lighting schedule Week Rule - Jan7-Jan27,  !- Name
    lighting schedule allday1,  !- Sunday Schedule:Day Name
    lighting schedule allday1,  !- Monday Schedule:Day Name
    lighting schedule allday1,  !- Tuesday Schedule:Day Name
    lighting schedule allday1,  !- Wednesday Schedule:Day Name
    lighting schedule allday1,  !- Thursday Schedule:Day Name
    lighting schedule allday1,  !- Friday Schedule:Day Name
    lighting schedule allday1,  !- Saturday Schedule:Day Name
    Schedule Day 17,         !- Holiday Schedule:Day Name
    Schedule Day 17,         !- SummerDesignDay Schedule:Day Name
    Schedule Day 17,         !- WinterDesignDay Schedule:Day Name
    Schedule Day 17,         !- CustomDay1 Schedule:Day Name
    Schedule Day 17;         !- CustomDay2 Schedule:Day Name

  Schedule:Week:Daily,
    lighting schedule Week Rule - Jan28-Feb3,  !- Name
    lighting schedule allday1,  !- Sunday Schedule:Day Name
    lighting schedule allday1,  !- Monday Schedule:Day Name
    lighting schedule allday1,  !- Tuesday Schedule:Day Name
    lighting schedule allday1,  !- Wednesday Schedule:Day Name
    lighting schedule allday2,  !- Thursday Schedule:Day Name
    lighting schedule allday2,  !- Friday Schedule:Day Name
    lighting schedule allday2,  !- Saturday Schedule:Day Name
    Schedule Day 17,         !- Holiday Schedule:Day Name
    Schedule Day 17,         !- SummerDesignDay Schedule:Day Name
    Schedule Day 17,         !- WinterDesignDay Schedule:Day Name
    Schedule Day 17,         !- CustomDay1 Schedule:Day Name
    Schedule Day 17;         !- CustomDay2 Schedule:Day Name

  Schedule:Day:Interval,
    lighting schedule allday3,  !- Name
    Fractional,              !- Schedule Type Limits Name
    No,                      !- Interpolate to Timestep
    01:00,                   !- Time 1
    0.123751072162069,       !- Value Until Time 1
    02:00,                   !- Time 2
    0.0742506432972411,      !- Value Until Time 2
    04:00,                   !- Time 3
    0.0495004288648274,      !- Value Until Time 3
    05:00,                   !- Time 4
    0.0539769495981545,      !- Value Until Time 4
    06:00,                   !- Time 5
    0.145737405126266,       !- Value Until Time 5
    07:00,                   !- Time 6
    0.342151196872689,       !- Value Until Time 6
    08:00,                   !- Time 7
    0.432983519359585,       !- Value Until Time 7
    09:00,                   !- Time 8
    0.451821835325185,       !- Value Until Time 8
    10:00,                   !- Time 9
    0.456355536459178,       !- Value Until Time 9
    11:00,                   !- Time 10
    0.443495220254784,       !- Value Until Time 10
    12:00,                   !- Time 11
    0.425677600852492,       !- Value Until Time 11
    13:00,                   !- Time 12
    0.412817284648097,       !- Value Until Time 12
    14:00,                   !- Time 13
    0.409032947986417,       !- Value Until Time 13
    15:00,                   !- Time 14